/*--------------------------------*- C++ -*----------------------------------*\ 
| =========                 |                                                 |
| \\      /  F ield         | OpenFOAM: The Open Source CFD Toolbox           |
|  \\    /   O peration     | Version:  v2012                                 |
|   \\  /    A nd           | Website:  www.openfoam.com                      |
|    \\/     M anipulation  |                                                 |
\*---------------------------------------------------------------------------*/
FoamFile
{
    version     2.0;
    format      ascii;
    class       volScalarField;
    location    "0.org";
    object      epsilon;
}
 
// * * * * * * * * * * * * * * * * * * * * * * * * * * * * * * * * * * * * * //

dimensions      [0 2 -3 0 0 0 0];

internalField   uniform 29586.951195;

boundaryField
{
    #includeEtc "caseDicts/setConstraintTypes"
    inlet
    {
        type            fixedValue;
        value           uniform 29586.951195;
    }
    outlet
    {
        type            zeroGradient;
    }
    walls
    {
        type            epsilonWallFunction;
        value           uniform 29586.951195;
    }
}
 

// ************************************************************************* //
